ASN
     RDKit          3D

 17 16  0  0  1  0  0  0  0  0999 V2000
   -0.4679    1.7691   -0.0136 N   0  0  0  0  0  0  0  0  0  0  0  0
   -0.6229    0.3751   -0.4476 C   0  0  2  0  0  0  0  0  0  0  0  0
   -2.0209   -0.0959   -0.1386 C   0  0  0  0  0  0  0  0  0  0  0  0
   -2.6849    0.4851    0.6864 O   0  0  0  0  0  0  0  0  0  0  0  0
    0.3871   -0.5049    0.2934 C   0  0  0  0  0  0  0  0  0  0  0  0
    1.7851   -0.1139   -0.1096 C   0  0  0  0  0  0  0  0  0  0  0  0
    1.9571    0.7801   -0.9116 O   0  0  0  0  0  0  0  0  0  0  0  0
    2.8441   -0.7579    0.4194 N   0  0  0  0  0  0  0  0  0  0  0  0
   -2.5279   -1.1599   -0.7806 O   0  0  0  0  0  0  0  0  0  0  0  0
   -1.0789    2.3801   -0.5346 H   0  0  0  0  0  0  0  0  0  0  0  0
   -0.6279    1.8591    0.9784 H   0  0  0  0  0  0  0  0  0  0  0  0
   -0.4449    0.3061   -1.5206 H   0  0  0  0  0  0  0  0  0  0  0  0
    0.2671   -0.3679    1.3684 H   0  0  0  0  0  0  0  0  0  0  0  0
    0.2141   -1.5499    0.0384 H   0  0  0  0  0  0  0  0  0  0  0  0
    2.7061   -1.4729    1.0604 H   0  0  0  0  0  0  0  0  0  0  0  0
    3.7441   -0.5069    0.1604 H   0  0  0  0  0  0  0  0  0  0  0  0
   -3.4289   -1.4249   -0.5486 H   0  0  0  0  0  0  0  0  0  0  0  0
  1  2  1  0
  1 10  1  0
  1 11  1  0
  2  3  1  0
  2  5  1  0
  2 12  1  6
  3  4  2  0
  3  9  1  0
  5  6  1  0
  5 13  1  0
  5 14  1  0
  6  7  2  0
  6  8  1  0
  8 15  1  0
  8 16  1  0
  9 17  1  0
M  END
