ILE
     RDKit          3D

 22 21  0  0  1  0  0  0  0  0999 V2000
   -2.0418    0.3158   -1.0375 N   0  0  0  0  0  0  0  0  0  0  0  0
   -0.5848    0.4998   -1.0635 C   0  0  2  0  0  0  0  0  0  0  0  0
   -0.0318   -0.0512   -2.3515 C   0  0  0  0  0  0  0  0  0  0  0  0
   -0.5818   -0.9772   -2.8975 O   0  0  0  0  0  0  0  0  0  0  0  0
    0.0422   -0.2382    0.1195 C   0  0  2  0  0  0  0  0  0  0  0  0
   -0.5188    0.3218    1.4275 C   0  0  0  0  0  0  0  0  0  0  0  0
    1.5602   -0.0462    0.0935 C   0  0  0  0  0  0  0  0  0  0  0  0
    0.1082   -0.4162    2.6105 C   0  0  0  0  0  0  0  0  0  0  0  0
    1.0732    0.4848   -2.8915 O   0  0  0  0  0  0  0  0  0  0  0  0
   -2.2098   -0.6752   -1.1045 H   0  0  0  0  0  0  0  0  0  0  0  0
   -2.3538    0.6028   -0.1225 H   0  0  0  0  0  0  0  0  0  0  0  0
   -0.3508    1.5628   -0.9935 H   0  0  0  0  0  0  0  0  0  0  0  0
   -0.1898   -1.3002    0.0495 H   0  0  0  0  0  0  0  0  0  0  0  0
   -1.5998    0.1848    1.4465 H   0  0  0  0  0  0  0  0  0  0  0  0
   -0.2858    1.3838    1.4975 H   0  0  0  0  0  0  0  0  0  0  0  0
    1.7932    1.0148    0.1625 H   0  0  0  0  0  0  0  0  0  0  0  0
    2.0072   -0.5732    0.9365 H   0  0  0  0  0  0  0  0  0  0  0  0
    1.9612   -0.4462   -0.8375 H   0  0  0  0  0  0  0  0  0  0  0  0
   -0.2908   -0.0182    3.5425 H   0  0  0  0  0  0  0  0  0  0  0  0
   -0.1238   -1.4792    2.5405 H   0  0  0  0  0  0  0  0  0  0  0  0
    1.1892   -0.2802    2.5915 H   0  0  0  0  0  0  0  0  0  0  0  0
    1.4292    0.1308   -3.7185 H   0  0  0  0  0  0  0  0  0  0  0  0
  1  2  1  0
  1 10  1  0
  1 11  1  0
  2  3  1  0
  2  5  1  0
  2 12  1  1
  3  4  2  0
  3  9  1  0
  5  6  1  0
  5  7  1  0
  5 13  1  6
  6  8  1  0
  6 14  1  0
  6 15  1  0
  7 16  1  0
  7 17  1  0
  7 18  1  0
  8 19  1  0
  8 20  1  0
  8 21  1  0
  9 22  1  0
M  END
