LEU
     RDKit          3D

 22 21  0  0  1  0  0  0  0  0999 V2000
   -1.6984    0.6085   -1.1561 N   0  0  0  0  0  0  0  0  0  0  0  0
   -0.2424    0.4225   -1.2171 C   0  0  2  0  0  0  0  0  0  0  0  0
    0.1426   -0.0735   -2.5861 C   0  0  0  0  0  0  0  0  0  0  0  0
   -0.6284   -0.7495   -3.2241 O   0  0  0  0  0  0  0  0  0  0  0  0
    0.1836   -0.6015   -0.1651 C   0  0  0  0  0  0  0  0  0  0  0  0
   -0.2074   -0.0975    1.2259 C   0  0  0  0  0  0  0  0  0  0  0  0
    0.2186   -1.1225    2.2789 C   0  0  0  0  0  0  0  0  0  0  0  0
    0.4886    1.2355    1.4999 C   0  0  0  0  0  0  0  0  0  0  0  0
    1.3446    0.2355   -3.0981 O   0  0  0  0  0  0  0  0  0  0  0  0
   -2.1144   -0.2905   -1.3421 H   0  0  0  0  0  0  0  0  0  0  0  0
   -1.9214    0.8395   -0.2001 H   0  0  0  0  0  0  0  0  0  0  0  0
    0.2536    1.3725   -1.0211 H   0  0  0  0  0  0  0  0  0  0  0  0
    1.2636   -0.7405   -0.2101 H   0  0  0  0  0  0  0  0  0  0  0  0
   -0.3124   -1.5525   -0.3601 H   0  0  0  0  0  0  0  0  0  0  0  0
   -1.2874    0.0395    1.2709 H   0  0  0  0  0  0  0  0  0  0  0  0
   -0.0594   -0.7635    3.2689 H   0  0  0  0  0  0  0  0  0  0  0  0
   -0.2774   -2.0735    2.0829 H   0  0  0  0  0  0  0  0  0  0  0  0
    1.2986   -1.2615    2.2339 H   0  0  0  0  0  0  0  0  0  0  0  0
    1.5686    1.0965    1.4549 H   0  0  0  0  0  0  0  0  0  0  0  0
    0.1846    1.9655    0.7499 H   0  0  0  0  0  0  0  0  0  0  0  0
    0.2096    1.5945    2.4909 H   0  0  0  0  0  0  0  0  0  0  0  0
    1.5926   -0.0825   -3.9761 H   0  0  0  0  0  0  0  0  0  0  0  0
  1  2  1  0
  1 10  1  0
  1 11  1  0
  2  3  1  0
  2  5  1  0
  2 12  1  1
  3  4  2  0
  3  9  1  0
  5  6  1  0
  5 13  1  0
  5 14  1  0
  6  7  1  0
  6  8  1  0
  6 15  1  0
  7 16  1  0
  7 17  1  0
  7 18  1  0
  8 19  1  0
  8 20  1  0
  8 21  1  0
  9 22  1  0
M  END
