LYS
     RDKit          3D

 25 24  0  0  1  0  0  0  0  0999 V2000
    2.2739    1.7720    0.1775 N   0  0  0  0  0  0  0  0  0  0  0  0
    2.2459    0.3310    0.4635 C   0  0  2  0  0  0  0  0  0  0  0  0
    3.5089   -0.3080   -0.0525 C   0  0  0  0  0  0  0  0  0  0  0  0
    4.1679    0.2510   -0.8965 O   0  0  0  0  0  0  0  0  0  0  0  0
    1.0359   -0.3020   -0.2265 C   0  0  0  0  0  0  0  0  0  0  0  0
   -0.2501    0.2580    0.3865 C   0  0  0  0  0  0  0  0  0  0  0  0
   -1.4611   -0.3750   -0.3035 C   0  0  0  0  0  0  0  0  0  0  0  0
   -2.7461    0.1840    0.3085 C   0  0  0  0  0  0  0  0  0  0  0  0
   -3.9091   -0.4240   -0.3525 N   0  0  0  0  0  0  0  0  0  0  0  0
    3.9019   -1.5000    0.4255 O   0  0  0  0  0  0  0  0  0  0  0  0
    2.3409    1.8670   -0.8245 H   0  0  0  0  0  0  0  0  0  0  0  0
    1.3729    2.1380    0.4435 H   0  0  0  0  0  0  0  0  0  0  0  0
    2.1739    0.1760    1.5395 H   0  0  0  0  0  0  0  0  0  0  0  0
    1.0619   -0.0710   -1.2905 H   0  0  0  0  0  0  0  0  0  0  0  0
    1.0629   -1.3830   -0.0885 H   0  0  0  0  0  0  0  0  0  0  0  0
   -0.2761    0.0260    1.4505 H   0  0  0  0  0  0  0  0  0  0  0  0
   -0.2781    1.3390    0.2485 H   0  0  0  0  0  0  0  0  0  0  0  0
   -1.4351   -0.1440   -1.3685 H   0  0  0  0  0  0  0  0  0  0  0  0
   -1.4331   -1.4560   -0.1655 H   0  0  0  0  0  0  0  0  0  0  0  0
   -2.7731   -0.0470    1.3735 H   0  0  0  0  0  0  0  0  0  0  0  0
   -2.7741    1.2650    0.1715 H   0  0  0  0  0  0  0  0  0  0  0  0
   -3.8841   -0.2090   -1.3385 H   0  0  0  0  0  0  0  0  0  0  0  0
   -3.8831   -1.4240   -0.2255 H   0  0  0  0  0  0  0  0  0  0  0  0
   -4.7571   -0.0550    0.0505 H   0  0  0  0  0  0  0  0  0  0  0  0
    4.7129   -1.9100    0.0945 H   0  0  0  0  0  0  0  0  0  0  0  0
  1  2  1  0
  1 11  1  0
  1 12  1  0
  2  3  1  0
  2  5  1  0
  2 13  1  1
  3  4  2  0
  3 10  1  0
  5  6  1  0
  5 14  1  0
  5 15  1  0
  6  7  1  0
  6 16  1  0
  6 17  1  0
  7  8  1  0
  7 18  1  0
  7 19  1  0
  8  9  1  0
  8 20  1  0
  8 21  1  0
  9 22  1  0
  9 23  1  0
  9 24  1  0
 10 25  1  0
M  CHG  1   9   1
M  END
