THR
     RDKit          3D

 17 16  0  0  1  0  0  0  0  0999 V2000
    1.5678   -0.5088   -0.1254 N   0  0  0  0  0  0  0  0  0  0  0  0
    0.1468   -0.5128   -0.4994 C   0  0  2  0  0  0  0  0  0  0  0  0
   -0.0132    0.1032   -1.8644 C   0  0  0  0  0  0  0  0  0  0  0  0
    0.7568    0.9542   -2.2384 O   0  0  0  0  0  0  0  0  0  0  0  0
   -0.6502    0.2972    0.5236 C   0  0  2  0  0  0  0  0  0  0  0  0
   -0.1682    1.6412    0.5476 O   0  0  0  0  0  0  0  0  0  0  0  0
   -0.4862   -0.3278    1.9106 C   0  0  0  0  0  0  0  0  0  0  0  0
   -1.0142   -0.2948   -2.6654 O   0  0  0  0  0  0  0  0  0  0  0  0
    1.8638    0.4542   -0.1214 H   0  0  0  0  0  0  0  0  0  0  0  0
    1.6178   -0.8318    0.8296 H   0  0  0  0  0  0  0  0  0  0  0  0
   -0.2202   -1.5388   -0.5174 H   0  0  0  0  0  0  0  0  0  0  0  0
   -1.7042    0.2942    0.2466 H   0  0  0  0  0  0  0  0  0  0  0  0
    0.7648    1.5992    0.7966 H   0  0  0  0  0  0  0  0  0  0  0  0
   -1.0552    0.2492    2.6386 H   0  0  0  0  0  0  0  0  0  0  0  0
   -0.8542   -1.3538    1.8926 H   0  0  0  0  0  0  0  0  0  0  0  0
    0.5668   -0.3248    2.1876 H   0  0  0  0  0  0  0  0  0  0  0  0
   -1.1182    0.1012   -3.5414 H   0  0  0  0  0  0  0  0  0  0  0  0
  1  2  1  0
  1  9  1  0
  1 10  1  0
  2  3  1  0
  2  5  1  0
  2 11  1  6
  3  4  2  0
  3  8  1  0
  5  6  1  0
  5  7  1  0
  5 12  1  6
  6 13  1  0
  7 14  1  0
  7 15  1  0
  7 16  1  0
  8 17  1  0
M  END
