TYR
     RDKit          3D

 24 24  0  0  1  0  0  0  0  0999 V2000
    1.3289    1.0217    1.5572 N   0  0  0  0  0  0  0  0  0  0  0  0
   -0.0091    0.4987    1.8632 C   0  0  2  0  0  0  0  0  0  0  0  0
   -0.0941    0.1637    3.3302 C   0  0  0  0  0  0  0  0  0  0  0  0
    0.8949   -0.1843    3.9282 O   0  0  0  0  0  0  0  0  0  0  0  0
   -0.2651   -0.7613    1.0362 C   0  0  0  0  0  0  0  0  0  0  0  0
   -0.1801   -0.4263   -0.4298 C   0  0  0  0  0  0  0  0  0  0  0  0
    1.0309   -0.5193   -1.0898 C   0  0  0  0  0  0  0  0  0  0  0  0
   -1.3151   -0.0323   -1.1148 C   0  0  0  0  0  0  0  0  0  0  0  0
    1.1119   -0.2123   -2.4338 C   0  0  0  0  0  0  0  0  0  0  0  0
   -1.2381    0.2797   -2.4578 C   0  0  0  0  0  0  0  0  0  0  0  0
   -0.0231    0.1877   -3.1228 C   0  0  0  0  0  0  0  0  0  0  0  0
    0.0529    0.4897   -4.4448 O   0  0  0  0  0  0  0  0  0  0  0  0
   -1.2701    0.2537    3.9712 O   0  0  0  0  0  0  0  0  0  0  0  0
    1.9859    0.2947    1.7982 H   0  0  0  0  0  0  0  0  0  0  0  0
    1.3739    1.1327    0.5552 H   0  0  0  0  0  0  0  0  0  0  0  0
   -0.7581    1.2527    1.6182 H   0  0  0  0  0  0  0  0  0  0  0  0
    0.4819   -1.5153    1.2812 H   0  0  0  0  0  0  0  0  0  0  0  0
   -1.2591   -1.1493    1.2632 H   0  0  0  0  0  0  0  0  0  0  0  0
    1.9139   -0.8323   -0.5538 H   0  0  0  0  0  0  0  0  0  0  0  0
   -2.2601    0.0387   -0.5978 H   0  0  0  0  0  0  0  0  0  0  0  0
    2.0579   -0.2843   -2.9488 H   0  0  0  0  0  0  0  0  0  0  0  0
   -2.1231    0.5927   -2.9918 H   0  0  0  0  0  0  0  0  0  0  0  0
   -0.1141   -0.3293   -4.9298 H   0  0  0  0  0  0  0  0  0  0  0  0
   -1.3241    0.0397    4.9132 H   0  0  0  0  0  0  0  0  0  0  0  0
  1  2  1  0
  1 14  1  0
  1 15  1  0
  2  3  1  0
  2  5  1  0
  2 16  1  6
  3  4  2  0
  3 13  1  0
  5  6  1  0
  5 17  1  0
  5 18  1  0
  6  7  2  0
  6  8  1  0
  7  9  1  0
  7 19  1  0
  8 10  2  0
  8 20  1  0
  9 11  2  0
  9 21  1  0
 10 11  1  0
 10 22  1  0
 11 12  1  0
 12 23  1  0
 13 24  1  0
M  END
